# generated using pymatgen
data_KNa12Li4Mg2Sn2PS12
_symmetry_space_group_name_H-M   'P 1'
_cell_length_a   13.76334953
_cell_length_b   13.76334953
_cell_length_c   27.51902962
_cell_angle_alpha   90.00000000
_cell_angle_beta   90.00000000
_cell_angle_gamma   90.00000000
_symmetry_Int_Tables_number   1
_chemical_formula_structural   KNa12Li4Mg2Sn2PS12
_chemical_formula_sum   'K8 Na96 Li32 Mg16 Sn16 P8 S96'
_cell_volume   5212.92401160
_cell_formula_units_Z   8
loop_
 _symmetry_equiv_pos_site_id
 _symmetry_equiv_pos_as_xyz
  1  'x, y, z'
loop_
 _atom_site_type_symbol
 _atom_site_label
 _atom_site_symmetry_multiplicity
 _atom_site_fract_x
 _atom_site_fract_y
 _atom_site_fract_z
 _atom_site_occupancy
  Sn  Sn1  1  0.250000  0.000000  0.250000  1
  Sn  Sn2  1  0.250000  0.000000  0.500000  1
  Sn  Sn3  1  0.250000  0.000000  0.750000  1
  Sn  Sn4  1  0.250000  0.000000  0.000000  1
  Sn  Sn5  1  0.750000  0.000000  0.750000  1
  Sn  Sn6  1  0.750000  0.000000  0.500000  1
  Sn  Sn7  1  0.750000  0.000000  0.250000  1
  Sn  Sn8  1  0.750000  0.000000  0.000000  1
  Sn  Sn9  1  0.750000  0.500000  0.750000  1
  Sn  Sn10  1  0.750000  0.500000  0.000000  1
  Sn  Sn11  1  0.750000  0.500000  0.250000  1
  Sn  Sn12  1  0.750000  0.500000  0.500000  1
  Sn  Sn13  1  0.250000  0.500000  0.250000  1
  Sn  Sn14  1  0.250000  0.500000  0.000000  1
  Sn  Sn15  1  0.250000  0.500000  0.750000  1
  Sn  Sn16  1  0.250000  0.500000  0.500000  1
  S  S17  1  0.326000  0.899700  0.198700  1
  S  S18  1  0.350300  0.076000  0.448700  1
  S  S19  1  0.174000  0.100300  0.698700  1
  S  S20  1  0.149700  0.924000  0.948700  1
  S  S21  1  0.326000  0.100300  0.301300  1
  S  S22  1  0.149700  0.076000  0.551300  1
  S  S23  1  0.174000  0.899700  0.801300  1
  S  S24  1  0.350300  0.924000  0.051300  1
  S  S25  1  0.674000  0.100300  0.801300  1
  S  S26  1  0.649700  0.924000  0.551300  1
  S  S27  1  0.826000  0.899700  0.301300  1
  S  S28  1  0.850300  0.076000  0.051300  1
  S  S29  1  0.674000  0.899700  0.698700  1
  S  S30  1  0.850300  0.924000  0.448700  1
  S  S31  1  0.826000  0.100300  0.198700  1
  S  S32  1  0.649700  0.076000  0.948700  1
  S  S33  1  0.826000  0.399700  0.698700  1
  S  S34  1  0.850300  0.576000  0.948700  1
  S  S35  1  0.674000  0.600300  0.198700  1
  S  S36  1  0.649700  0.424000  0.448700  1
  S  S37  1  0.826000  0.600300  0.801300  1
  S  S38  1  0.649700  0.576000  0.051300  1
  S  S39  1  0.674000  0.399700  0.301300  1
  S  S40  1  0.850300  0.424000  0.551300  1
  S  S41  1  0.174000  0.600300  0.301300  1
  S  S42  1  0.149700  0.424000  0.051300  1
  S  S43  1  0.326000  0.399700  0.801300  1
  S  S44  1  0.350300  0.576000  0.551300  1
  S  S45  1  0.174000  0.399700  0.198700  1
  S  S46  1  0.350300  0.424000  0.948700  1
  S  S47  1  0.326000  0.600300  0.698700  1
  S  S48  1  0.149700  0.576000  0.448700  1
  S  S49  1  0.125800  0.897200  0.299900  1
  S  S50  1  0.352800  0.875800  0.549900  1
  S  S51  1  0.374200  0.102800  0.799900  1
  S  S52  1  0.147200  0.124200  0.049900  1
  S  S53  1  0.125800  0.102800  0.200100  1
  S  S54  1  0.147200  0.875800  0.450100  1
  S  S55  1  0.374200  0.897200  0.700100  1
  S  S56  1  0.352800  0.124200  0.950100  1
  S  S57  1  0.874200  0.102800  0.700100  1
  S  S58  1  0.647200  0.124200  0.450100  1
  S  S59  1  0.625800  0.897200  0.200100  1
  S  S60  1  0.852800  0.875800  0.950100  1
  S  S61  1  0.874200  0.897200  0.799900  1
  S  S62  1  0.852800  0.124200  0.549900  1
  S  S63  1  0.625800  0.102800  0.299900  1
  S  S64  1  0.647200  0.875800  0.049900  1
  S  S65  1  0.625800  0.397200  0.799900  1
  S  S66  1  0.852800  0.375800  0.049900  1
  S  S67  1  0.874200  0.602800  0.299900  1
  S  S68  1  0.647200  0.624200  0.549900  1
  S  S69  1  0.625800  0.602800  0.700100  1
  S  S70  1  0.647200  0.375800  0.950100  1
  S  S71  1  0.874200  0.397200  0.200100  1
  S  S72  1  0.852800  0.624200  0.450100  1
  S  S73  1  0.374200  0.602800  0.200100  1
  S  S74  1  0.147200  0.624200  0.950100  1
  S  S75  1  0.125800  0.397200  0.700100  1
  S  S76  1  0.352800  0.375800  0.450100  1
  S  S77  1  0.374200  0.397200  0.299900  1
  S  S78  1  0.352800  0.624200  0.049900  1
  S  S79  1  0.125800  0.602800  0.799900  1
  S  S80  1  0.147200  0.375800  0.549900  1
  S  S81  1  0.409700  0.833900  0.332000  1
  S  S82  1  0.416100  0.159700  0.582000  1
  S  S83  1  0.090300  0.166100  0.832000  1
  S  S84  1  0.083900  0.840300  0.082000  1
  S  S85  1  0.409700  0.166100  0.168000  1
  S  S86  1  0.083900  0.159700  0.418000  1
  S  S87  1  0.090300  0.833900  0.668000  1
  S  S88  1  0.416100  0.840300  0.918000  1
  S  S89  1  0.590300  0.166100  0.668000  1
  S  S90  1  0.583900  0.840300  0.418000  1
  S  S91  1  0.909700  0.833900  0.168000  1
  S  S92  1  0.916100  0.159700  0.918000  1
  S  S93  1  0.590300  0.833900  0.832000  1
  S  S94  1  0.916100  0.840300  0.582000  1
  S  S95  1  0.909700  0.166100  0.332000  1
  S  S96  1  0.583900  0.159700  0.082000  1
  S  S97  1  0.909700  0.333900  0.832000  1
  S  S98  1  0.916100  0.659700  0.082000  1
  S  S99  1  0.590300  0.666100  0.332000  1
  S  S100  1  0.583900  0.340300  0.582000  1
  S  S101  1  0.909700  0.666100  0.668000  1
  S  S102  1  0.583900  0.659700  0.918000  1
  S  S103  1  0.590300  0.333900  0.168000  1
  S  S104  1  0.916100  0.340300  0.418000  1
  S  S105  1  0.090300  0.666100  0.168000  1
  S  S106  1  0.083900  0.340300  0.918000  1
  S  S107  1  0.409700  0.333900  0.668000  1
  S  S108  1  0.416100  0.659700  0.418000  1
  S  S109  1  0.090300  0.333900  0.332000  1
  S  S110  1  0.416100  0.340300  0.082000  1
  S  S111  1  0.409700  0.666100  0.832000  1
  S  S112  1  0.083900  0.659700  0.582000  1
  P  P113  1  0.000000  0.750000  0.125000  1
  P  P114  1  0.500000  0.750000  0.375000  1
  P  P115  1  0.500000  0.250000  0.625000  1
  P  P116  1  0.000000  0.250000  0.875000  1
  P  P117  1  0.000000  0.250000  0.375000  1
  P  P118  1  0.000000  0.750000  0.625000  1
  P  P119  1  0.500000  0.750000  0.875000  1
  P  P120  1  0.500000  0.250000  0.125000  1
  Na  Na121  1  0.250000  0.000000  0.125000  1
  Na  Na122  1  0.250000  0.000000  0.375000  1
  Na  Na123  1  0.250000  0.000000  0.625000  1
  Na  Na124  1  0.250000  0.000000  0.875000  1
  Na  Na125  1  0.750000  0.000000  0.875000  1
  Na  Na126  1  0.750000  0.000000  0.625000  1
  Na  Na127  1  0.750000  0.000000  0.375000  1
  Na  Na128  1  0.750000  0.000000  0.125000  1
  Na  Na129  1  0.750000  0.500000  0.625000  1
  Na  Na130  1  0.750000  0.500000  0.875000  1
  Na  Na131  1  0.750000  0.500000  0.125000  1
  Na  Na132  1  0.750000  0.500000  0.375000  1
  Na  Na133  1  0.250000  0.500000  0.375000  1
  Na  Na134  1  0.250000  0.500000  0.125000  1
  Na  Na135  1  0.250000  0.500000  0.875000  1
  Na  Na136  1  0.250000  0.500000  0.625000  1
  Na  Na137  1  0.000000  0.000000  0.125000  1
  Na  Na138  1  0.250000  0.750000  0.375000  1
  Na  Na139  1  0.500000  0.000000  0.625000  1
  Na  Na140  1  0.250000  0.250000  0.875000  1
  Na  Na141  1  0.000000  0.000000  0.375000  1
  Na  Na142  1  0.250000  0.750000  0.625000  1
  Na  Na143  1  0.500000  0.000000  0.875000  1
  Na  Na144  1  0.250000  0.250000  0.125000  1
  Na  Na145  1  0.000000  0.000000  0.875000  1
  Na  Na146  1  0.750000  0.250000  0.625000  1
  Na  Na147  1  0.500000  0.000000  0.375000  1
  Na  Na148  1  0.750000  0.750000  0.125000  1
  Na  Na149  1  0.000000  0.000000  0.625000  1
  Na  Na150  1  0.750000  0.250000  0.375000  1
  Na  Na151  1  0.500000  0.000000  0.125000  1
  Na  Na152  1  0.750000  0.750000  0.875000  1
  Na  Na153  1  0.500000  0.500000  0.625000  1
  Na  Na154  1  0.750000  0.250000  0.875000  1
  Na  Na155  1  0.000000  0.500000  0.125000  1
  Na  Na156  1  0.750000  0.750000  0.375000  1
  Na  Na157  1  0.500000  0.500000  0.875000  1
  Na  Na158  1  0.750000  0.250000  0.125000  1
  Na  Na159  1  0.000000  0.500000  0.375000  1
  Na  Na160  1  0.750000  0.750000  0.625000  1
  Na  Na161  1  0.500000  0.500000  0.375000  1
  Na  Na162  1  0.250000  0.750000  0.125000  1
  Na  Na163  1  0.000000  0.500000  0.875000  1
  Na  Na164  1  0.250000  0.250000  0.625000  1
  Na  Na165  1  0.500000  0.500000  0.125000  1
  Na  Na166  1  0.250000  0.750000  0.875000  1
  Na  Na167  1  0.000000  0.500000  0.625000  1
  Na  Na168  1  0.250000  0.250000  0.375000  1
  Na  Na169  1  0.000000  0.250000  0.000000  1
  Na  Na170  1  0.000000  0.750000  0.250000  1
  Na  Na171  1  0.500000  0.750000  0.500000  1
  Na  Na172  1  0.500000  0.250000  0.750000  1
  Na  Na173  1  0.000000  0.750000  0.500000  1
  Na  Na174  1  0.500000  0.750000  0.750000  1
  Na  Na175  1  0.500000  0.250000  0.000000  1
  Na  Na176  1  0.000000  0.250000  0.250000  1
  Na  Na177  1  0.000000  0.750000  0.000000  1
  Na  Na178  1  0.000000  0.250000  0.750000  1
  Na  Na179  1  0.500000  0.250000  0.500000  1
  Na  Na180  1  0.500000  0.750000  0.250000  1
  Na  Na181  1  0.000000  0.250000  0.500000  1
  Na  Na182  1  0.500000  0.250000  0.250000  1
  Na  Na183  1  0.500000  0.750000  0.000000  1
  Na  Na184  1  0.000000  0.750000  0.750000  1
  Na  Na185  1  0.000000  0.000000  0.000000  1
  Na  Na186  1  0.250000  0.750000  0.250000  1
  Na  Na187  1  0.500000  0.000000  0.500000  1
  Na  Na188  1  0.250000  0.250000  0.750000  1
  Na  Na189  1  0.000000  0.000000  0.500000  1
  Na  Na190  1  0.250000  0.750000  0.750000  1
  Na  Na191  1  0.500000  0.000000  0.000000  1
  Na  Na192  1  0.250000  0.250000  0.250000  1
  Na  Na193  1  0.750000  0.250000  0.750000  1
  Na  Na194  1  0.750000  0.750000  0.250000  1
  Na  Na195  1  0.750000  0.250000  0.250000  1
  Na  Na196  1  0.750000  0.750000  0.750000  1
  Na  Na197  1  0.500000  0.500000  0.500000  1
  Na  Na198  1  0.000000  0.500000  0.000000  1
  Na  Na199  1  0.500000  0.500000  0.000000  1
  Na  Na200  1  0.000000  0.500000  0.500000  1
  Na  Na201  1  0.750000  0.250000  0.000000  1
  Na  Na202  1  0.000000  0.500000  0.250000  1
  Na  Na203  1  0.750000  0.750000  0.500000  1
  Na  Na204  1  0.500000  0.500000  0.750000  1
  Na  Na205  1  0.250000  0.750000  0.000000  1
  Na  Na206  1  0.000000  0.500000  0.750000  1
  Na  Na207  1  0.250000  0.250000  0.500000  1
  Na  Na208  1  0.500000  0.500000  0.250000  1
  Na  Na209  1  0.250000  0.750000  0.500000  1
  Na  Na210  1  0.500000  0.000000  0.750000  1
  Na  Na211  1  0.250000  0.250000  0.000000  1
  Na  Na212  1  0.000000  0.000000  0.250000  1
  Na  Na213  1  0.750000  0.250000  0.500000  1
  Na  Na214  1  0.500000  0.000000  0.250000  1
  Na  Na215  1  0.750000  0.750000  0.000000  1
  Na  Na216  1  0.000000  0.000000  0.750000  1
  K  K217  1  0.500000  0.750000  0.625000  1
  K  K218  1  0.500000  0.250000  0.875000  1
  K  K219  1  0.000000  0.250000  0.125000  1
  K  K220  1  0.000000  0.750000  0.375000  1
  K  K221  1  0.500000  0.250000  0.375000  1
  K  K222  1  0.500000  0.750000  0.125000  1
  K  K223  1  0.000000  0.750000  0.875000  1
  K  K224  1  0.000000  0.250000  0.625000  1
  Li  Li225  1  0.650000  0.375000  0.050000  1
  Li  Li226  1  0.875000  0.400000  0.300000  1
  Li  Li227  1  0.850000  0.625000  0.550000  1
  Li  Li228  1  0.625000  0.600000  0.800000  1
  Li  Li229  1  0.650000  0.625000  0.450000  1
  Li  Li230  1  0.625000  0.400000  0.700000  1
  Li  Li231  1  0.850000  0.375000  0.950000  1
  Li  Li232  1  0.875000  0.600000  0.200000  1
  Li  Li233  1  0.350000  0.625000  0.950000  1
  Li  Li234  1  0.125000  0.600000  0.700000  1
  Li  Li235  1  0.150000  0.375000  0.450000  1
  Li  Li236  1  0.375000  0.400000  0.200000  1
  Li  Li237  1  0.350000  0.375000  0.550000  1
  Li  Li238  1  0.375000  0.600000  0.300000  1
  Li  Li239  1  0.150000  0.625000  0.050000  1
  Li  Li240  1  0.125000  0.400000  0.800000  1
  Li  Li241  1  0.150000  0.875000  0.550000  1
  Li  Li242  1  0.375000  0.900000  0.800000  1
  Li  Li243  1  0.350000  0.125000  0.050000  1
  Li  Li244  1  0.125000  0.100000  0.300000  1
  Li  Li245  1  0.150000  0.125000  0.950000  1
  Li  Li246  1  0.125000  0.900000  0.200000  1
  Li  Li247  1  0.350000  0.875000  0.450000  1
  Li  Li248  1  0.375000  0.100000  0.700000  1
  Li  Li249  1  0.850000  0.125000  0.450000  1
  Li  Li250  1  0.625000  0.100000  0.200000  1
  Li  Li251  1  0.650000  0.875000  0.950000  1
  Li  Li252  1  0.875000  0.900000  0.700000  1
  Li  Li253  1  0.850000  0.875000  0.050000  1
  Li  Li254  1  0.875000  0.100000  0.800000  1
  Li  Li255  1  0.650000  0.125000  0.550000  1
  Li  Li256  1  0.625000  0.900000  0.300000  1
  Mg  Mg257  1  0.250000  0.750000  0.000000  1
  Mg  Mg258  1  0.500000  0.000000  0.250000  1
  Mg  Mg259  1  0.250000  0.250000  0.500000  1
  Mg  Mg260  1  0.000000  0.000000  0.750000  1
  Mg  Mg261  1  0.750000  0.250000  0.000000  1
  Mg  Mg262  1  0.500000  0.000000  0.750000  1
  Mg  Mg263  1  0.750000  0.750000  0.500000  1
  Mg  Mg264  1  0.000000  0.000000  0.250000  1
  Mg  Mg265  1  0.750000  0.250000  0.500000  1
  Mg  Mg266  1  0.000000  0.500000  0.750000  1
  Mg  Mg267  1  0.750000  0.750000  0.000000  1
  Mg  Mg268  1  0.500000  0.500000  0.250000  1
  Mg  Mg269  1  0.250000  0.750000  0.500000  1
  Mg  Mg270  1  0.000000  0.500000  0.250000  1
  Mg  Mg271  1  0.250000  0.250000  0.000000  1
  Mg  Mg272  1  0.500000  0.500000  0.750000  1
