# generated using pymatgen
data_Na11Ge2PS12
_symmetry_space_group_name_H-M   'P 1'
_cell_length_a   13.34221600
_cell_length_b   13.34221600
_cell_length_c   26.68443300
_cell_angle_alpha   90.00000000
_cell_angle_beta   90.00000000
_cell_angle_gamma   90.00000000
_symmetry_Int_Tables_number   1
_chemical_formula_structural   Na11Ge2PS12
_chemical_formula_sum   'Na88 Ge16 P8 S96'
_cell_volume   4750.22207674
_cell_formula_units_Z   8
loop_
 _symmetry_equiv_pos_site_id
 _symmetry_equiv_pos_as_xyz
  1  'x, y, z'
loop_
 _atom_site_type_symbol
 _atom_site_label
 _atom_site_symmetry_multiplicity
 _atom_site_fract_x
 _atom_site_fract_y
 _atom_site_fract_z
 _atom_site_occupancy
  Na  Na1  1  0.007274  0.997206  0.125276  1
  Na  Na2  1  0.533034  0.509185  0.634216  1
  Na  Na3  1  0.532251  0.479355  0.877447  1
  Na  Na4  1  0.043312  0.017506  0.372961  1
  Na  Na5  1  0.713765  0.970103  0.875486  1
  Na  Na6  1  0.961041  0.544759  0.376530  1
  Na  Na7  1  0.986999  0.483970  0.135286  1
  Na  Na8  1  0.237691  0.241517  0.131665  1
  Na  Na9  1  0.739154  0.973869  0.614456  1
  Na  Na10  1  0.733529  0.252011  0.751803  1
  Na  Na11  1  0.762910  0.790436  0.361412  1
  Na  Na12  1  0.255382  0.249469  0.882594  1
  Na  Na13  1  0.743411  0.249010  0.106335  1
  Na  Na14  1  0.255520  0.759936  0.615761  1
  Na  Na15  1  0.012252  0.997453  0.864249  1
  Na  Na16  1  0.474961  0.509000  0.386888  1
  Na  Na17  1  0.985747  0.039965  0.608076  1
  Na  Na18  1  0.005850  0.518364  0.621644  1
  Na  Na19  1  0.511915  0.971334  0.112601  1
  Na  Na20  1  0.040190  0.500093  0.874573  1
  Na  Na21  1  0.522011  0.993948  0.371395  1
  Na  Na22  1  0.265788  0.240241  0.380781  1
  Na  Na23  1  0.780973  0.752044  0.854048  1
  Na  Na24  1  0.738939  0.256188  0.620864  1
  Na  Na25  1  0.276044  0.723729  0.112483  1
  Na  Na26  1  0.214692  0.257819  0.627394  1
  Na  Na27  1  0.755512  0.566237  0.125196  1
  Na  Na28  1  0.733834  0.250742  0.359532  1
  Na  Na29  1  0.513199  0.729066  0.506568  1
  Na  Na30  1  0.502030  0.241945  0.997457  1
  Na  Na31  1  0.005571  0.797095  0.495019  1
  Na  Na32  1  0.533859  0.711400  0.741069  1
  Na  Na33  1  0.994612  0.754701  0.257115  1
  Na  Na34  1  0.482531  0.225303  0.765798  1
  Na  Na35  1  0.014670  0.759484  0.997729  1
  Na  Na36  1  0.492977  0.225132  0.501306  1
  Na  Na37  1  0.491000  0.741494  0.020397  1
  Na  Na38  1  0.635317  0.286782  0.231574  1
  Na  Na39  1  0.002906  0.766456  0.763029  1
  Na  Na40  1  0.468347  0.731939  0.230716  1
  Na  Na41  1  0.001717  0.023569  0.253071  1
  Na  Na42  1  0.514673  0.480172  0.753249  1
  Na  Na43  1  0.466115  0.960751  0.780403  1
  Na  Na44  1  0.966694  0.499734  0.250656  1
  Na  Na45  1  0.225509  0.217510  0.004154  1
  Na  Na46  1  0.775102  0.748645  0.525578  1
  Na  Na47  1  0.268284  0.754951  0.454329  1
  Na  Na48  1  0.809567  0.259627  0.993432  1
  Na  Na49  1  0.976775  0.011823  0.740139  1
  Na  Na50  1  0.457857  0.464992  0.259314  1
  Na  Na51  1  0.012135  0.473735  0.763972  1
  Na  Na52  1  0.519741  0.025894  0.238450  1
  Na  Na53  1  0.225805  0.277315  0.495819  1
  Na  Na54  1  0.746819  0.756818  0.997049  1
  Na  Na55  1  0.764670  0.252799  0.477382  1
  Na  Na56  1  0.266571  0.732139  0.972223  1
  Na  Na57  1  0.996147  0.032740  0.986539  1
  Na  Na58  1  0.486986  0.473575  0.514306  1
  Na  Na59  1  0.516803  0.466730  0.996804  1
  Na  Na60  1  0.995950  0.051297  0.490554  1
  Na  Na61  1  0.496855  0.980037  0.970163  1
  Na  Na62  1  0.000201  0.443000  0.503186  1
  Na  Na63  1  0.016135  0.485938  0.008020  1
  Na  Na64  1  0.494677  0.999598  0.498623  1
  Na  Na65  1  0.282071  0.241722  0.238844  1
  Na  Na66  1  0.782772  0.768025  0.721539  1
  Na  Na67  1  0.247514  0.752537  0.271165  1
  Na  Na68  1  0.016204  0.244328  0.748586  1
  Na  Na69  1  0.744185  0.742334  0.234025  1
  Na  Na70  1  0.266020  0.238650  0.740235  1
  Na  Na71  1  0.916945  0.254448  0.256609  1
  Na  Na72  1  0.252044  0.739803  0.766424  1
  Na  Na73  1  0.222073  0.489424  0.133817  1
  Na  Na74  1  0.481342  0.987533  0.656115  1
  Na  Na75  1  0.735369  0.245377  0.880856  1
  Na  Na76  1  0.215687  0.519378  0.375329  1
  Na  Na77  1  0.280761  0.503540  0.884855  1
  Na  Na78  1  0.807632  0.027579  0.375339  1
  Na  Na79  1  0.752406  0.004751  0.124449  1
  Na  Na80  1  0.273673  0.491406  0.622706  1
  Na  Na81  1  0.794442  0.497532  0.871461  1
  Na  Na82  1  0.285055  0.970028  0.382058  1
  Na  Na83  1  0.782922  0.526343  0.628478  1
  Na  Na84  1  0.246161  0.957195  0.128419  1
  Na  Na85  1  0.228594  0.992184  0.636578  1
  Na  Na86  1  0.458235  0.477454  0.128726  1
  Na  Na87  1  0.278162  0.929362  0.880210  1
  Na  Na88  1  0.714439  0.512000  0.388397  1
  Ge  Ge89  1  0.261203  0.004912  0.258808  1
  Ge  Ge90  1  0.769334  0.507418  0.751918  1
  Ge  Ge91  1  0.234836  0.994957  0.748475  1
  Ge  Ge92  1  0.721443  0.504668  0.255656  1
  Ge  Ge93  1  0.231931  0.973964  0.000731  1
  Ge  Ge94  1  0.744207  0.475477  0.506374  1
  Ge  Ge95  1  0.250116  0.031504  0.510981  1
  Ge  Ge96  1  0.755831  0.506164  0.999680  1
  Ge  Ge97  1  0.725942  0.005673  0.749308  1
  Ge  Ge98  1  0.230365  0.498397  0.249211  1
  Ge  Ge99  1  0.271948  0.484079  0.754534  1
  Ge  Ge100  1  0.776017  0.010220  0.246280  1
  Ge  Ge101  1  0.235587  0.522670  0.498121  1
  Ge  Ge102  1  0.736783  0.018670  0.990497  1
  Ge  Ge103  1  0.738545  0.998941  0.493973  1
  Ge  Ge104  1  0.248192  0.463397  0.003743  1
  P  P105  1  0.000775  0.264257  0.378291  1
  P  P106  1  0.515770  0.727370  0.880661  1
  P  P107  1  0.488615  0.254225  0.629041  1
  P  P108  1  0.009495  0.748388  0.121589  1
  P  P109  1  0.004766  0.255611  0.873828  1
  P  P110  1  0.497675  0.745692  0.363881  1
  P  P111  1  0.996974  0.763877  0.629073  1
  P  P112  1  0.492506  0.234619  0.123546  1
  S  S113  1  0.157779  0.371773  0.055945  1
  S  S114  1  0.641716  0.898069  0.541898  1
  S  S115  1  0.635321  0.117941  0.947853  1
  S  S116  1  0.130692  0.604217  0.453334  1
  S  S117  1  0.340568  0.370624  0.948061  1
  S  S118  1  0.850026  0.895243  0.448194  1
  S  S119  1  0.828045  0.101985  0.044211  1
  S  S120  1  0.349093  0.623680  0.544623  1
  S  S121  1  0.877167  0.110214  0.191633  1
  S  S122  1  0.370109  0.585428  0.703283  1
  S  S123  1  0.867618  0.907960  0.298104  1
  S  S124  1  0.373924  0.381566  0.801385  1
  S  S125  1  0.131189  0.593485  0.298087  1
  S  S126  1  0.624635  0.093024  0.803039  1
  S  S127  1  0.115089  0.400693  0.205720  1
  S  S128  1  0.622468  0.894218  0.710218  1
  S  S129  1  0.849245  0.610616  0.952280  1
  S  S130  1  0.344583  0.119191  0.458509  1
  S  S131  1  0.835640  0.385315  0.560564  1
  S  S132  1  0.337535  0.878259  0.046146  1
  S  S133  1  0.156622  0.137441  0.553271  1
  S  S134  1  0.640802  0.604836  0.039264  1
  S  S135  1  0.146732  0.881286  0.948525  1
  S  S136  1  0.630707  0.387593  0.454013  1
  S  S137  1  0.626857  0.421149  0.313004  1
  S  S138  1  0.135000  0.902409  0.801685  1
  S  S139  1  0.127592  0.101794  0.699192  1
  S  S140  1  0.625989  0.602175  0.199731  1
  S  S141  1  0.863775  0.422014  0.700805  1
  S  S142  1  0.366127  0.902731  0.208709  1
  S  S143  1  0.353340  0.114386  0.305378  1
  S  S144  1  0.871650  0.607112  0.799255  1
  S  S145  1  0.149058  0.063255  0.059791  1
  S  S146  1  0.653934  0.588614  0.552498  1
  S  S147  1  0.670307  0.394325  0.946612  1
  S  S148  1  0.157607  0.932904  0.458145  1
  S  S149  1  0.325255  0.070781  0.951628  1
  S  S150  1  0.842249  0.567127  0.454888  1
  S  S151  1  0.844376  0.411017  0.054618  1
  S  S152  1  0.356450  0.940929  0.555853  1
  S  S153  1  0.166036  0.086586  0.203278  1
  S  S154  1  0.675024  0.584473  0.700436  1
  S  S155  1  0.161503  0.911559  0.309208  1
  S  S156  1  0.688716  0.413017  0.802756  1
  S  S157  1  0.825495  0.605945  0.297452  1
  S  S158  1  0.322446  0.088152  0.803953  1
  S  S159  1  0.815092  0.394708  0.206505  1
  S  S160  1  0.327306  0.898218  0.702419  1
  S  S161  1  0.843950  0.928620  0.943593  1
  S  S162  1  0.326431  0.433090  0.448296  1
  S  S163  1  0.829817  0.092782  0.541274  1
  S  S164  1  0.345891  0.575267  0.040662  1
  S  S165  1  0.159816  0.423938  0.554581  1
  S  S166  1  0.637596  0.925130  0.041245  1
  S  S167  1  0.154923  0.564727  0.955699  1
  S  S168  1  0.648382  0.096795  0.447452  1
  S  S169  1  0.309338  0.389116  0.299050  1
  S  S170  1  0.828687  0.904283  0.794627  1
  S  S171  1  0.817278  0.091362  0.696683  1
  S  S172  1  0.335147  0.590782  0.202865  1
  S  S173  1  0.172423  0.404224  0.699243  1
  S  S174  1  0.674983  0.915087  0.198894  1
  S  S175  1  0.682496  0.106860  0.294888  1
  S  S176  1  0.176128  0.573143  0.805407  1
  S  S177  1  0.079984  0.198017  0.325713  1
  S  S178  1  0.607727  0.645221  0.840113  1
  S  S179  1  0.569311  0.325166  0.685459  1
  S  S180  1  0.100470  0.826053  0.174042  1
  S  S181  1  0.379724  0.167462  0.659928  1
  S  S182  1  0.916273  0.666208  0.172463  1
  S  S183  1  0.895986  0.361057  0.341589  1
  S  S184  1  0.414974  0.782446  0.826896  1
  S  S185  1  0.084423  0.162118  0.920916  1
  S  S186  1  0.603468  0.668133  0.401055  1
  S  S187  1  0.081576  0.858816  0.586144  1
  S  S188  1  0.570619  0.342419  0.090104  1
  S  S189  1  0.925956  0.674880  0.581863  1
  S  S190  1  0.398884  0.145680  0.082138  1
  S  S191  1  0.938546  0.353459  0.923017  1
  S  S192  1  0.431258  0.834374  0.416997  1
  S  S193  1  0.901461  0.861739  0.667179  1
  S  S194  1  0.412475  0.307191  0.180673  1
  S  S195  1  0.893241  0.175705  0.832910  1
  S  S196  1  0.387908  0.663358  0.337074  1
  S  S197  1  0.105055  0.326912  0.831657  1
  S  S198  1  0.573281  0.829137  0.310483  1
  S  S199  1  0.083231  0.676289  0.677481  1
  S  S200  1  0.603706  0.135109  0.152594  1
  S  S201  1  0.409430  0.354030  0.582136  1
  S  S202  1  0.922745  0.838754  0.079460  1
  S  S203  1  0.902347  0.176400  0.424581  1
  S  S204  1  0.426923  0.622774  0.917900  1
  S  S205  1  0.103902  0.345430  0.420363  1
  S  S206  1  0.586324  0.835611  0.921393  1
  S  S207  1  0.583318  0.162618  0.595603  1
  S  S208  1  0.087828  0.647713  0.078075  1
