# generated using pymatgen
data_Na11Ge2PS12
_symmetry_space_group_name_H-M   'P 1'
_cell_length_a   13.34221600
_cell_length_b   13.34221600
_cell_length_c   26.68443300
_cell_angle_alpha   90.00000000
_cell_angle_beta   90.00000000
_cell_angle_gamma   90.00000000
_symmetry_Int_Tables_number   1
_chemical_formula_structural   Na11Ge2PS12
_chemical_formula_sum   'Na88 Ge16 P8 S96'
_cell_volume   4750.22207674
_cell_formula_units_Z   8
loop_
 _symmetry_equiv_pos_site_id
 _symmetry_equiv_pos_as_xyz
  1  'x, y, z'
loop_
 _atom_site_type_symbol
 _atom_site_label
 _atom_site_symmetry_multiplicity
 _atom_site_fract_x
 _atom_site_fract_y
 _atom_site_fract_z
 _atom_site_occupancy
  Na  Na1  1  0.007369  0.978678  0.129230  1
  Na  Na2  1  0.641027  0.483870  0.627529  1
  Na  Na3  1  0.232160  0.230232  0.826112  1
  Na  Na4  1  0.013653  0.947019  0.249311  1
  Na  Na5  1  0.249546  0.748759  0.747328  1
  Na  Na6  1  0.766775  0.432444  0.368185  1
  Na  Na7  1  0.742294  0.482764  0.113833  1
  Na  Na8  1  0.254557  0.209279  0.120569  1
  Na  Na9  1  0.642025  0.998570  0.612207  1
  Na  Na10  1  0.742140  0.253549  0.751364  1
  Na  Na11  1  0.822686  0.739103  0.368345  1
  Na  Na12  1  0.218414  0.752229  0.866490  1
  Na  Na13  1  0.758880  0.727826  0.099405  1
  Na  Na14  1  0.228843  0.750088  0.636369  1
  Na  Na15  1  0.711088  0.968549  0.863153  1
  Na  Na16  1  0.456666  0.441276  0.723325  1
  Na  Na17  1  0.989644  0.036920  0.619788  1
  Na  Na18  1  0.952955  0.751376  0.743786  1
  Na  Na19  1  0.522239  0.987738  0.255137  1
  Na  Na20  1  0.284925  0.527029  0.875138  1
  Na  Na21  1  0.626172  0.943378  0.398534  1
  Na  Na22  1  0.241676  0.024161  0.376385  1
  Na  Na23  1  0.042228  0.462600  0.896680  1
  Na  Na24  1  0.948757  0.458243  0.621753  1
  Na  Na25  1  0.283904  0.484070  0.127081  1
  Na  Na26  1  0.262742  0.291278  0.521576  1
  Na  Na27  1  0.759205  0.739294  0.235859  1
  Na  Na28  1  0.712623  0.199629  0.495173  1
  Na  Na29  1  0.544675  0.717796  0.487688  1
  Na  Na30  1  0.239305  0.947087  0.122855  1
  Na  Na31  1  0.976539  0.269595  0.503374  1
  Na  Na32  1  0.683982  0.753615  0.768197  1
  Na  Na33  1  0.027114  0.219226  0.246108  1
  Na  Na34  1  0.508537  0.260440  0.786618  1
  Na  Na35  1  0.216394  0.236576  0.975421  1
  Na  Na36  1  0.230415  0.221429  0.344176  1
  Na  Na37  1  0.507264  0.962855  0.950505  1
  Na  Na38  1  0.755706  0.244087  0.244667  1
  Na  Na39  1  0.968406  0.001485  0.736397  1
  Na  Na40  1  0.518336  0.744101  0.242761  1
  Na  Na41  1  0.723001  0.220641  0.025223  1
  Na  Na42  1  0.769420  0.458057  0.869788  1
  Na  Na43  1  0.488936  0.061734  0.717254  1
  Na  Na44  1  0.008623  0.456041  0.123546  1
  Na  Na45  1  0.477401  0.221642  0.000041  1
  Na  Na46  1  0.781127  0.713183  0.508703  1
  Na  Na47  1  0.870486  0.850724  0.542412  1
  Na  Na48  1  0.347374  0.981433  0.876660  1
  Na  Na49  1  0.987240  0.946807  0.853754  1
  Na  Na50  1  0.258824  0.775726  0.373037  1
  Na  Na51  1  0.966610  0.461508  0.764027  1
  Na  Na52  1  0.501128  0.222494  0.274279  1
  Na  Na53  1  0.223234  0.468469  0.379787  1
  Na  Na54  1  0.605845  0.710356  0.974212  1
  Na  Na55  1  0.744384  0.253231  0.630236  1
  Na  Na56  1  0.022323  0.005020  0.973097  1
  Na  Na57  1  0.993772  0.476350  0.012176  1
  Na  Na58  1  0.484699  0.475754  0.514577  1
  Na  Na59  1  0.619224  0.583797  0.297250  1
  Na  Na60  1  0.016778  0.573526  0.485276  1
  Na  Na61  1  0.491039  0.953673  0.132795  1
  Na  Na62  1  0.976613  0.021656  0.475904  1
  Na  Na63  1  0.998239  0.212175  0.029703  1
  Na  Na64  1  0.468462  0.239980  0.470690  1
  Na  Na65  1  0.291229  0.232798  0.220372  1
  Na  Na66  1  0.832308  0.712339  0.876107  1
  Na  Na67  1  0.233245  0.694088  0.247548  1
  Na  Na68  1  0.019481  0.231594  0.734838  1
  Na  Na69  1  0.979488  0.563974  0.231147  1
  Na  Na70  1  0.249635  0.244674  0.699839  1
  Na  Na71  1  0.010893  0.532630  0.364699  1
  Na  Na72  1  0.511822  0.477152  0.867500  1
  Na  Na73  1  0.517822  0.448546  0.200865  1
  Na  Na74  1  0.436554  0.006084  0.493031  1
  Na  Na75  1  0.695368  0.232486  0.881583  1
  Na  Na76  1  0.500130  0.428212  0.371154  1
  Na  Na77  1  0.301106  0.731226  0.991019  1
  Na  Na78  1  0.005687  0.923212  0.364746  1
  Na  Na79  1  0.762435  0.040134  0.116135  1
  Na  Na80  1  0.229312  0.495235  0.608952  1
  Na  Na81  1  0.485539  0.452328  0.022843  1
  Na  Na82  1  0.262881  0.759850  0.512996  1
  Na  Na83  1  0.827797  0.640150  0.663526  1
  Na  Na84  1  0.276342  0.708435  0.122032  1
  Na  Na85  1  0.257798  0.001582  0.619565  1
  Na  Na86  1  0.013271  0.731320  0.983441  1
  Na  Na87  1  0.459931  0.766914  0.729883  1
  Na  Na88  1  0.725855  0.247382  0.373044  1
  Ge  Ge89  1  0.263682  0.969734  0.248798  1
  Ge  Ge90  1  0.715837  0.504491  0.743879  1
  Ge  Ge91  1  0.250751  0.989007  0.745262  1
  Ge  Ge92  1  0.755921  0.487841  0.243835  1
  Ge  Ge93  1  0.282102  0.982232  0.001188  1
  Ge  Ge94  1  0.735493  0.477301  0.499411  1
  Ge  Ge95  1  0.221654  0.002837  0.496250  1
  Ge  Ge96  1  0.773601  0.459790  0.994409  1
  Ge  Ge97  1  0.737884  0.023593  0.745605  1
  Ge  Ge98  1  0.243579  0.443896  0.247208  1
  Ge  Ge99  1  0.211701  0.484056  0.748172  1
  Ge  Ge100  1  0.770744  0.968940  0.262009  1
  Ge  Ge101  1  0.247884  0.524021  0.492293  1
  Ge  Ge102  1  0.751390  0.960536  0.995880  1
  Ge  Ge103  1  0.731034  0.966340  0.490094  1
  Ge  Ge104  1  0.269119  0.477974  0.995974  1
  P  P105  1  0.985192  0.242095  0.371085  1
  P  P106  1  0.478756  0.754808  0.853674  1
  P  P107  1  0.467932  0.269856  0.618905  1
  P  P108  1  0.033135  0.716567  0.120937  1
  P  P109  1  0.971285  0.209587  0.882548  1
  P  P110  1  0.532499  0.709504  0.363715  1
  P  P111  1  0.988901  0.735271  0.615481  1
  P  P112  1  0.517068  0.206154  0.129865  1
  S  S113  1  0.160997  0.382229  0.043261  1
  S  S114  1  0.625518  0.847807  0.539236  1
  S  S115  1  0.668490  0.070504  0.946955  1
  S  S116  1  0.158026  0.607403  0.433306  1
  S  S117  1  0.367471  0.390017  0.948127  1
  S  S118  1  0.830076  0.904759  0.433540  1
  S  S119  1  0.872131  0.061279  0.043837  1
  S  S120  1  0.343848  0.611350  0.546435  1
  S  S121  1  0.863927  0.082202  0.213669  1
  S  S122  1  0.328076  0.575759  0.695639  1
  S  S123  1  0.877196  0.853815  0.292676  1
  S  S124  1  0.324222  0.397877  0.796381  1
  S  S125  1  0.130636  0.527734  0.289704  1
  S  S126  1  0.652402  0.115623  0.800982  1
  S  S127  1  0.176817  0.350372  0.181399  1
  S  S128  1  0.636467  0.925179  0.702655  1
  S  S129  1  0.874590  0.563704  0.951376  1
  S  S130  1  0.304277  0.121552  0.450711  1
  S  S131  1  0.812729  0.374599  0.554173  1
  S  S132  1  0.389326  0.875477  0.051399  1
  S  S133  1  0.123699  0.081626  0.553896  1
  S  S134  1  0.654811  0.562387  0.033561  1
  S  S135  1  0.173399  0.890305  0.955158  1
  S  S136  1  0.645116  0.368465  0.444938  1
  S  S137  1  0.630740  0.395664  0.288150  1
  S  S138  1  0.151865  0.894447  0.789545  1
  S  S139  1  0.135292  0.084565  0.692558  1
  S  S140  1  0.667038  0.594125  0.187564  1
  S  S141  1  0.800847  0.409720  0.694428  1
  S  S142  1  0.358448  0.852365  0.204034  1
  S  S143  1  0.350985  0.075043  0.292165  1
  S  S144  1  0.818221  0.590456  0.796763  1
  S  S145  1  0.165178  0.060997  0.042786  1
  S  S146  1  0.644583  0.588901  0.540904  1
  S  S147  1  0.657653  0.384195  0.938193  1
  S  S148  1  0.127050  0.905898  0.449902  1
  S  S149  1  0.356814  0.107425  0.954907  1
  S  S150  1  0.848302  0.539419  0.454326  1
  S  S151  1  0.858799  0.369804  0.046484  1
  S  S152  1  0.314424  0.920674  0.551917  1
  S  S153  1  0.160948  0.051225  0.195975  1
  S  S154  1  0.626547  0.623409  0.690828  1
  S  S155  1  0.183255  0.881846  0.302099  1
  S  S156  1  0.625664  0.405480  0.794123  1
  S  S157  1  0.833734  0.581330  0.297561  1
  S  S158  1  0.342701  0.089695  0.787298  1
  S  S159  1  0.850595  0.396868  0.194990  1
  S  S160  1  0.336833  0.888675  0.698476  1
  S  S161  1  0.862126  0.898610  0.936582  1
  S  S162  1  0.351853  0.411601  0.450229  1
  S  S163  1  0.832103  0.050976  0.534678  1
  S  S164  1  0.343269  0.577167  0.047102  1
  S  S165  1  0.145339  0.422337  0.534797  1
  S  S166  1  0.668180  0.872285  0.046788  1
  S  S167  1  0.175164  0.601111  0.950476  1
  S  S168  1  0.603385  0.076007  0.456276  1
  S  S169  1  0.351729  0.373559  0.302775  1
  S  S170  1  0.823659  0.884919  0.791924  1
  S  S171  1  0.844816  0.133428  0.699306  1
  S  S172  1  0.359016  0.537740  0.206433  1
  S  S173  1  0.128636  0.387681  0.691841  1
  S  S174  1  0.670368  0.895301  0.205011  1
  S  S175  1  0.677577  0.049550  0.311717  1
  S  S176  1  0.135970  0.591535  0.793058  1
  S  S177  1  0.073656  0.124026  0.331374  1
  S  S178  1  0.592762  0.659428  0.871515  1
  S  S179  1  0.530089  0.268193  0.689320  1
  S  S180  1  0.115756  0.821365  0.079872  1
  S  S181  1  0.437663  0.415812  0.597668  1
  S  S182  1  0.116627  0.602217  0.154624  1
  S  S183  1  0.888530  0.168931  0.415160  1
  S  S184  1  0.534554  0.882106  0.824380  1
  S  S185  1  0.086323  0.111989  0.905925  1
  S  S186  1  0.447861  0.803079  0.412527  1
  S  S187  1  0.071167  0.828231  0.574104  1
  S  S188  1  0.434328  0.327690  0.098577  1
  S  S189  1  0.899531  0.660101  0.569665  1
  S  S190  1  0.554366  0.084587  0.083294  1
  S  S191  1  0.921865  0.273848  0.949084  1
  S  S192  1  0.419977  0.655212  0.323002  1
  S  S193  1  0.893898  0.846415  0.653617  1
  S  S194  1  0.437663  0.151127  0.188761  1
  S  S195  1  0.855367  0.137557  0.841364  1
  S  S196  1  0.636847  0.606361  0.392850  1
  S  S197  1  0.054450  0.310158  0.831541  1
  S  S198  1  0.623578  0.809288  0.327404  1
  S  S199  1  0.068122  0.629246  0.661657  1
  S  S200  1  0.651141  0.264627  0.154067  1
  S  S201  1  0.562897  0.207418  0.569787  1
  S  S202  1  0.931300  0.798206  0.170573  1
  S  S203  1  0.076550  0.333353  0.418760  1
  S  S204  1  0.381232  0.674038  0.813579  1
  S  S205  1  0.918610  0.332074  0.319285  1
  S  S206  1  0.419476  0.790921  0.924531  1
  S  S207  1  0.322297  0.205667  0.619404  1
  S  S208  1  0.942128  0.649959  0.070809  1
